%chk=default
%mem=2GB
%NProcShared=6

#N ONIOM(B3LYP/6-311G** TD=(Root=2):HF/6-31G)

comments

0 1
X
X   1   r2
X   1   r3   2   a3
X   1   r4   2   a4   3   d4
H  0  6.4723   7.2217   6.6920   H
C  0  5.6388   6.5312   6.6964   H
C  0  4.8021   6.4518   7.8086   H
C  0  3.7321   5.5615   7.8179   H
C  0  3.5015   4.7539   6.7041   H
C  0  4.3330   4.8305   5.5883   H
C  0  5.4012   5.7233   5.5876   H
N  0  2.4898   3.7445   6.7305   H
C  0  1.2541   3.8287   6.2350   H
C  0  0.3814   2.7323   6.2755   H
C  0  0.0702   2.2163   7.6265   H
C  0  -1.1704   1.4847   7.7580   H
C  0  -2.0081   1.2991   6.6995   H
C  0  -1.7352   1.8677   5.4220   H
C  0  -0.6115   2.6233   5.2526   H
H  0  6.0562   5.7759   4.7276   H
H  0  4.1606   4.1639   4.7531   H
H  0  4.9863   7.0773   8.6735   H
H  0  3.0817   5.4797   8.6803   H
H  0  2.5234   3.0726   7.5048   H
H  0  1.0998   4.6277   5.5103   H
H  0  -0.4156   3.1022   4.3011   H
H  0  -2.4341   1.7264   4.6094   H
H  0  -2.9142   0.7187   6.8316   H
H  0  -1.3735   1.0557   8.7294   H
O  0  0.8871   2.3496   8.5655   H
C  -1  3.0160   11.7360   7.1800   M
C  -1  1.8790   12.5260   7.0380   M
C  -1  1.4890   13.3930   8.0560   M
C  -1  2.2420   13.4590   9.2280   M
C  -1  3.3680   12.6630   9.3840   M
C  -1  3.7750   11.8060   8.3550   M
N  -1  4.9010   10.9950   8.5780   M
C  -1  5.7760   10.7900   7.6580   M
C  -1  6.8999   9.9010   7.8550   M
C  -1  7.8730   9.7700   6.8510   M
C  -1  8.9590   8.9290   7.0100   M
C  -1  9.0810   8.1900   8.1910   M
C  -1  8.1330   8.2880   9.1969   M
C  -1  7.0389   9.1466   9.0512   M
O  -1  6.1429   9.2249   10.0438   M
H  -1  5.4660   9.9000   9.7770   M
H  -1  8.2170   7.7150   10.1110   M
H  -1  9.9290   7.5320   8.3260   M
H  -1  9.7040   8.8430   6.2310   M
H  -1  7.7479   10.3380   5.9371   M
H  -1  5.7110   11.2970   6.6880   M
H  -1  3.2910   11.0310   6.4050   M
H  -1  1.2890   12.4550   6.1330   M
H  -1  0.6050   14.0080   7.9400   M
H  -1  1.9460   14.1250   10.0290   M
H  -1  3.9540   12.6990   10.2950   M
C  -1  4.2520   4.7390   11.6190   M
C  -1  5.3879   5.5299   11.4729   M
C  -1  5.7780   6.4020   12.4860   M
C  -1  5.0270   6.4710   13.6600   M
C  -1  3.9030   5.6740   13.8210   M
C  -1  3.4950   4.8120   12.7960   M
N  -1  2.3700   4.0020   13.0240   M
C  -1  1.4940   3.7930   12.1050   M
C  -1  0.3701   2.9049   12.3060   M
C  -1  -0.6028   2.7722   11.3031   M
C  -1  -1.6890   1.9310   11.4650   M
C  -1  -1.8100   1.1940   12.6480   M
C  -1  -0.8610   1.2950   13.6520   M
C  -1  0.2330   2.1540   13.5040   M
O  -1  1.1290   2.2340   14.4960   M
H  -1  1.8060   2.9090   14.2260   M
H  -1  -0.9440   0.7230   14.5670   M
H  -1  -2.6590   0.5370   12.7850   M
H  -1  -2.4359   1.8451   10.6878   M
H  -1  -0.4804   3.3378   10.3879   M
H  -1  1.5570   4.2990   11.1340   M
H  -1  3.9770   4.0299   10.8481   M
H  -1  5.9769   5.4563   10.5668   M
H  -1  6.6600   7.0190   12.3660   M
H  -1  5.3230   7.1420   14.4570   M
H  -1  3.3180   5.7130   14.7320   M
C  -1  10.8080   4.7390   8.6470   M
C  -1  11.9440   5.5300   8.5010   M
C  -1  12.3340   6.4020   9.5140   M
C  -1  11.5820   6.4710   10.6870   M
C  -1  10.4580   5.6740   10.8490   M
C  -1  10.0510   4.8120   9.8240   M
N  -1  8.9260   4.0020   10.0510   M
C  -1  8.0490   3.7930   9.1330   M
C  -1  6.9250   2.9050   9.3340   M
C  -1  5.9519   2.7720   8.3311   M
C  -1  4.8651   1.9292   8.4940   M
C  -1  4.7448   1.1944   9.6761   M
C  -1  5.6940   1.2950   10.6800   M
C  -1  6.7880   2.1540   10.5320   M
O  -1  7.6850   2.2340   11.5230   M
H  -1  8.3620   2.9090   11.2540   M
H  -1  5.6120   0.7230   11.5950   M
H  -1  3.8970   0.5370   9.8130   M
H  -1  4.1203   1.8465   7.7119   M
H  -1  6.0750   3.3380   7.4160   M
H  -1  8.1120   4.2990   8.1620   M
H  -1  10.5320   4.0300   7.8760   M
H  -1  12.5320   5.4560   7.5950   M
H  -1  13.2150   7.0190   9.3940   M
H  -1  11.8790   7.1420   11.4840   M
H  -1  9.8740   5.7130   11.7600   M
C  -1  4.2520   4.7390   -0.2170   M
C  -1  5.3880   5.5300   -0.3640   M
C  -1  5.7780   6.4020   0.6500   M
C  -1  5.0271   6.4711   1.8229   M
C  -1  3.9030   5.6743   1.9840   M
C  -1  3.4950   4.8120   0.9590   M
N  -1  2.3700   4.0020   1.1870   M
C  -1  1.4940   3.7930   0.2680   M
C  -1  0.3700   2.9050   0.4700   M
C  -1  -0.6030   2.7720   -0.5330   M
C  -1  -1.6890   1.9310   -0.3720   M
C  -1  -1.8100   1.1940   0.8110   M
C  -1  -0.8610   1.2951   1.8160   M
C  -1  0.2330   2.1541   1.6670   M
O  -1  1.1290   2.2339   2.6592   M
H  -1  1.8060   2.9090   2.3900   M
H  -1  -0.9443   0.7230   2.7313   M
H  -1  -2.6590   0.5370   0.9480   M
H  -1  -2.4360   1.8450   -1.1490   M
H  -1  -0.4800   3.3380   -1.4490   M
H  -1  1.5570   4.2990   -0.7020   M
H  -1  3.9770   4.0300   -0.9890   M
H  -1  5.9770   5.4560   -1.2700   M
H  -1  6.6600   7.0190   0.5300   M
H  -1  5.3228   7.1419   2.6203   M
H  -1  3.3182   5.7123   2.8956   M
C  -1  3.0160   11.7360   1.2620   M
C  -1  1.8790   12.5260   1.1200   M
C  -1  1.4890   13.3930   2.1380   M
C  -1  2.2420   13.4590   3.3100   M
C  -1  3.3680   12.6630   3.4660   M
C  -1  3.7750   11.8060   2.4370   M
N  -1  4.9010   10.9950   2.6600   M
C  -1  5.7760   10.7900   1.7390   M
C  -1  6.9000   9.9010   1.9370   M
C  -1  7.8730   9.7700   0.9320   M
C  -1  8.9590   8.9290   1.0910   M
C  -1  9.0810   8.1900   2.2720   M
C  -1  8.1330   8.2880   3.2780   M
C  -1  7.0390   9.1470   3.1330   M
O  -1  6.1430   9.2250   4.1259   M
H  -1  5.4660   9.9000   3.8580   M
H  -1  8.2170   7.7150   4.1920   M
H  -1  9.9290   7.5320   2.4070   M
H  -1  9.7040   8.8430   0.3130   M
H  -1  7.7480   10.3380   0.0190   M
H  -1  5.7110   11.2970   0.7700   M
H  -1  3.2910   11.0310   0.4860   M
H  -1  1.2890   12.4550   0.2150   M
H  -1  0.6050   14.0080   2.0220   M
H  -1  1.9460   14.1250   4.1100   M
H  -1  3.9540   12.6990   4.3760   M
C  -1  10.8080   4.7390   2.7290   M
C  -1  11.9440   5.5300   2.5820   M
C  -1  12.3340   6.4020   3.5960   M
C  -1  11.5820   6.4710   4.7690   M
C  -1  10.4580   5.6740   4.9300   M
C  -1  10.0510   4.8120   3.9050   M
N  -1  8.9260   4.0020   4.1330   M
C  -1  8.0490   3.7930   3.2140   M
C  -1  6.9250   2.9050   3.4160   M
C  -1  5.9520   2.7720   2.4130   M
C  -1  4.8660   1.9310   2.5740   M
C  -1  4.7450   1.1940   3.7570   M
C  -1  5.6941   1.2950   4.7620   M
C  -1  6.7880   2.1540   4.6130   M
O  -1  7.6850   2.2340   5.6050   M
H  -1  8.3620   2.9090   5.3360   M
H  -1  5.6122   0.7229   5.6770   M
H  -1  3.8970   0.5370   3.8950   M
H  -1  4.1200   1.8450   1.7970   M
H  -1  6.0750   3.3380   1.4980   M
H  -1  8.1120   4.2990   2.2440   M
H  -1  10.5320   4.0300   1.9570   M
H  -1  12.5320   5.4560   1.6760   M
H  -1  13.2150   7.0190   3.4760   M
H  -1  11.8790   7.1420   5.5660   M
H  -1  9.8740   5.7130   5.8410   M
C  -1  -2.3030   4.7390   2.7550   M
C  -1  -1.1670   5.5300   2.6090   M
C  -1  -0.7770   6.4020   3.6220   M
C  -1  -1.5280   6.4710   4.7950   M
C  -1  -2.6530   5.6740   4.9570   M
C  -1  -3.0600   4.8120   3.9320   M
N  -1  -4.1850   4.0020   4.1590   M
C  -1  -5.0620   3.7930   3.2410   M
C  -1  -6.1850   2.9050   3.4420   M
C  -1  -7.1590   2.7720   2.4390   M
C  -1  -8.2450   1.9310   2.6010   M
C  -1  -8.3660   1.1940   3.7830   M
C  -1  -7.4160   1.2950   4.7880   M
C  -1  -6.3219   2.1539   4.6400   M
O  -1  -5.4262   2.2340   5.6308   M
H  -1  -4.7482   2.9089   5.3621   M
H  -1  -7.4990   0.7230   5.7030   M
H  -1  -9.2140   0.5370   3.9210   M
H  -1  -8.9910   1.8450   1.8230   M
H  -1  -7.0350   3.3380   1.5240   M
H  -1  -4.9980   4.2990   2.2700   M
H  -1  -2.5780   4.0300   1.9830   M
H  -1  -0.5790   5.4560   1.7030   M
H  -1  0.1040   7.0190   3.5020   M
H  -1  -1.2320   7.1420   5.5920   M
H  -1  -3.2370   5.7130   5.8670   M
C  -1  -3.5390   11.7360   4.2340   M
C  -1  -4.6770   12.5260   4.0920   M
C  -1  -5.0660   13.3930   5.1100   M
C  -1  -4.3130   13.4590   6.2820   M
C  -1  -3.1870   12.6630   6.4380   M
C  -1  -2.7800   11.8060   5.4090   M
N  -1  -1.6550   10.9950   5.6320   M
C  -1  -0.7790   10.7900   4.7120   M
C  -1  0.3450   9.9010   4.9090   M
C  -1  1.3170   9.7700   3.9050   M
C  -1  2.4030   8.9290   4.0640   M
C  -1  2.5260   8.1900   5.2450   M
C  -1  1.5782   8.2879   6.2509   M
C  -1  0.4840   9.1470   6.1050   M
O  -1  -0.4120   9.2250   7.0980   M
H  -1  -1.0900   9.9000   6.8310   M
H  -1  1.6616   7.7146   7.1638   M
H  -1  3.3739   7.5320   5.3800   M
H  -1  3.1490   8.8430   3.2850   M
H  -1  1.1930   10.3380   2.9910   M
H  -1  -0.8440   11.2970   3.7420   M
H  -1  -3.2640   11.0310   3.4590   M
H  -1  -5.2670   12.4550   3.1870   M
H  -1  -5.9500   14.0080   4.9940   M
H  -1  -4.6100   14.1250   7.0830   M
H  -1  -2.6020   12.6990   7.3480   M
C  -1  -2.3030   4.7390   8.6730   M
C  -1  -1.1674   5.5300   8.5267   M
C  -1  -0.7770   6.4020   9.5400   M
C  -1  -1.5280   6.4710   10.7140   M
C  -1  -2.6530   5.6740   10.8750   M
C  -1  -3.0600   4.8120   9.8500   M
N  -1  -4.1850   4.0020   10.0770   M
C  -1  -5.0620   3.7930   9.1590   M
C  -1  -6.1850   2.9050   9.3600   M
C  -1  -7.1590   2.7720   8.3570   M
C  -1  -8.2450   1.9310   8.5190   M
C  -1  -8.3660   1.1940   9.7020   M
C  -1  -7.4160   1.2950   10.7060   M
C  -1  -6.3220   2.1540   10.5580   M
O  -1  -5.4260   2.2340   11.5500   M
H  -1  -4.7490   2.9090   11.2800   M
H  -1  -7.4990   0.7230   11.6210   M
H  -1  -9.2140   0.5370   9.8390   M
H  -1  -8.9910   1.8450   7.7420   M
H  -1  -7.0350   3.3380   7.4420   M
H  -1  -4.9980   4.2990   8.1880   M
H  -1  -2.5780   4.0300   7.9020   M
H  -1  -0.5785   5.4560   7.6215   M
H  -1  0.1040   7.0190   9.4200   M
H  -1  -1.2320   7.1420   11.5110   M
H  -1  -3.2370   5.7130   11.7860   M
C  -1  -3.5390   11.7360   10.1520   M
C  -1  -4.6770   12.5260   10.0110   M
C  -1  -5.0660   13.3930   11.0280   M
C  -1  -4.3130   13.4590   12.2010   M
C  -1  -3.1870   12.6630   12.3570   M
C  -1  -2.7800   11.8060   11.3280   M
N  -1  -1.6550   10.9950   11.5500   M
C  -1  -0.7790   10.7900   10.6300   M
C  -1  0.3450   9.9010   10.8280   M
C  -1  1.3170   9.7700   9.8230   M
C  -1  2.4030   8.9290   9.9820   M
C  -1  2.5260   8.1900   11.1630   M
C  -1  1.5780   8.2880   12.1690   M
C  -1  0.4840   9.1470   12.0240   M
O  -1  -0.4120   9.2250   13.0160   M
H  -1  -1.0900   9.9000   12.7490   M
H  -1  1.6620   7.7150   13.0830   M
H  -1  3.3740   7.5320   11.2980   M
H  -1  3.1491   8.8429   9.2039   M
H  -1  1.1930   10.3380   8.9090   M
H  -1  -0.8440   11.2970   9.6600   M
H  -1  -3.2640   11.0310   9.3770   M
H  -1  -5.2670   12.4550   9.1060   M
H  -1  -5.9500   14.0080   10.9120   M
H  -1  -4.6100   14.1250   13.0010   M
H  -1  -2.6020   12.6990   13.2670   M
C  -1  3.0180   -2.2480   4.2150   M
C  -1  1.8800   -1.4580   4.0740   M
C  -1  1.4912   -0.5907   5.0909   M
C  -1  2.2430   -0.5245   6.2632   M
C  -1  3.3698   -1.3213   6.4202   M
C  -1  3.7770   -2.1790   5.3910   M
N  -1  4.9030   -2.9890   5.6130   M
C  -1  5.7780   -3.1940   4.6930   M
C  -1  6.9020   -4.0840   4.8910   M
C  -1  7.8750   -4.2140   3.8860   M
C  -1  8.9600   -5.0550   4.0450   M
C  -1  9.0830   -5.7940   5.2260   M
C  -1  8.1350   -5.6960   6.2320   M
C  -1  7.0410   -4.8370   6.0870   M
O  -1  6.1450   -4.7600   7.0790   M
H  -1  5.4680   -4.0840   6.8120   M
H  -1  8.2190   -6.2690   7.1460   M
H  -1  9.9310   -6.4530   5.3610   M
H  -1  9.7060   -5.1410   3.2670   M
H  -1  7.7500   -3.6460   2.9720   M
H  -1  5.7130   -2.6870   3.7230   M
H  -1  3.2930   -2.9530   3.4400   M
H  -1  1.2900   -1.5290   3.1690   M
H  -1  0.6069   0.0239   4.9750   M
H  -1  1.9492   0.1419   7.0657   M
H  -1  3.9560   -1.2850   7.3300   M
C  -1  3.0180   -2.2480   10.1330   M
C  -1  1.8800   -1.4580   9.9920   M
C  -1  1.4912   -0.5907   11.0101   M
C  -1  2.2441   -0.5250   12.1820   M
C  -1  3.3700   -1.3210   12.3380   M
C  -1  3.7770   -2.1790   11.3090   M
N  -1  4.9030   -2.9890   11.5320   M
C  -1  5.7780   -3.1940   10.6110   M
C  -1  6.9020   -4.0840   10.8090   M
C  -1  7.8750   -4.2140   9.8040   M
C  -1  8.9600   -5.0550   9.9630   M
C  -1  9.0830   -5.7940   11.1440   M
C  -1  8.1350   -5.6960   12.1500   M
C  -1  7.0410   -4.8370   12.0050   M
O  -1  6.1450   -4.7600   12.9970   M
H  -1  5.4680   -4.0840   12.7300   M
H  -1  8.2190   -6.2690   13.0640   M
H  -1  9.9310   -6.4530   11.2790   M
H  -1  9.7060   -5.1410   9.1850   M
H  -1  7.7500   -3.6460   8.8900   M
H  -1  5.7130   -2.6870   9.6420   M
H  -1  3.2930   -2.9530   9.3580   M
H  -1  1.2900   -1.5290   9.0870   M
H  -1  0.6070   0.0234   10.8931   M
H  -1  1.9470   0.1410   12.9820   M
H  -1  3.9560   -1.2850   13.2480   M
C  -1  -3.5370   -2.2480   1.2690   M
C  -1  -4.6750   -1.4580   1.1280   M
C  -1  -5.0640   -0.5910   2.1450   M
C  -1  -4.3110   -0.5250   3.3180   M
C  -1  -3.1850   -1.3210   3.4740   M
C  -1  -2.7780   -2.1790   2.4440   M
N  -1  -1.6530   -2.9890   2.6670   M
C  -1  -0.7770   -3.1940   1.7470   M
C  -1  0.3470   -4.0840   1.9440   M
C  -1  1.3190   -4.2140   0.9400   M
C  -1  2.4050   -5.0550   1.0990   M
C  -1  2.5280   -5.7940   2.2800   M
C  -1  1.5800   -5.6960   3.2860   M
C  -1  0.4860   -4.8370   3.1410   M
O  -1  -0.4100   -4.7600   4.1330   M
H  -1  -1.0880   -4.0840   3.8660   M
H  -1  1.6640   -6.2690   4.2000   M
H  -1  3.3760   -6.4530   2.4150   M
H  -1  3.1510   -5.1410   0.3210   M
H  -1  1.1950   -3.6460   0.0260   M
H  -1  -0.8420   -2.6870   0.7770   M
H  -1  -3.2620   -2.9530   0.4940   M
H  -1  -5.2650   -1.5290   0.2230   M
H  -1  -5.9480   0.0240   2.0290   M
H  -1  -4.6080   0.1410   4.1180   M
H  -1  -2.6000   -1.2850   4.3840   M
C  -1  -3.5370   -2.2480   7.1870   M
C  -1  -4.6751   -1.4579   7.0459   M
C  -1  -5.0637   -0.5914   8.0642   M
C  -1  -4.3113   -0.5248   9.2358   M
C  -1  -3.1850   -1.3209   9.3920   M
C  -1  -2.7780   -2.1790   8.3630   M
N  -1  -1.6530   -2.9890   8.5860   M
C  -1  -0.7770   -3.1940   7.6650   M
C  -1  0.3470   -4.0840   7.8630   M
C  -1  1.3190   -4.2140   6.8580   M
C  -1  2.4050   -5.0550   7.0170   M
C  -1  2.5280   -5.7940   8.1980   M
C  -1  1.5800   -5.6960   9.2040   M
C  -1  0.4860   -4.8370   9.0590   M
O  -1  -0.4100   -4.7600   10.0510   M
H  -1  -1.0880   -4.0840   9.7840   M
H  -1  1.6640   -6.2690   10.1180   M
H  -1  3.3760   -6.4530   8.3330   M
H  -1  3.1510   -5.1410   6.2390   M
H  -1  1.1950   -3.6460   5.9440   M
H  -1  -0.8420   -2.6870   6.6960   M
H  -1  -3.2620   -2.9530   6.4120   M
H  -1  -5.2650   -1.5290   6.1410   M
H  -1  -5.9480   0.0240   7.9469   M
H  -1  -4.6078   0.1409   10.0362   M
H  -1  -2.6001   -1.2846   10.3020   M

Constants:
r2   5.9183
r3   7.1869
r4   14.2950
a3   65.8000
a4   78.0300
d4   -90.0079

* 9 10 * R
8 9 10 11 F

